[General]
network = SimNETwork
description = color based ad-hoc host cluster protocol test
num-rngs = 100
**.rngNum = 1
**.cmdenv-log-level = off
**.numHosts = 1
**.colorNet.multi = 0
*.visualizer.mobilityVisualizer.displayVelocities = true
*.visualizer.mobilityVisualizer.displayMovementTrails = true

*.**.wlan[*].radio.antenna.numAntennas = 7
*.**.wlan[*].mac.qosStation = true
*.**.wlan[*].classifier.typename = "QosClassifier"
**.mac.hcf.originatorMacDataService.msduAggregationPolicy.typename = ""

*.**.wlan[*].opMode = "ac"
**.wlan[*].radio.bandName = "5 GHz"
**.wlan[*].bitrate = 433.33Mbps
**.wlan[*].mac.dcf.channelAccess.cwMin = 7
**.wlan[*].mac.cwMinBroadcast = 31
**.wlan[*].radio.transmitter.power = 12mW
**.wlan[*].radio.receiver.sensitivity = -85dBm
**.wlan[*].radio.receiver.snirThreshold = 4dB
**.wlan[*].radio.channelNumber = 4

# analog model
**.analogModel.ignorePartialInterference = true

**.cluster.path ="/home/admin123/rstFile/"
**.cluster.recordFile ="move_clusterRecord.txt"
**.cluster.iniFile = "move_iniRecord.txt"

**.colorNet.hopLimit = 10
**.colorNet.getDelayTime = 0.0005
**.colorNet.dataDelayTime = 0.0011
**.colorNet.TC = 1
**.colorNet.flood = false
**.colorNet.unicast = false
**.colorNet.routeLifeTime = 4s

**.cluster.collectTime  = 0.2s
**.cluster.interval = 0.05s
**.cluster.hello=0.1s
**.cluster.waitingTime=0.5s
**.cluster.retry = 4

**.host*.mobility.prob = 1
**.host*.mobility.typename = "RandomWaypointMobility"
**.host*.mobility.initFromDisplayString = false
**.host*.mobility.speed = 20mps
**.host*.mobility.waitTime = 1s
sim-time-limit = 10s

**.sendInterval = 0.02

**.statistic-recording = false
**.scalar-recording = false
**.vector-recording = false

[Config node384]
**.numHosts = 384
**.constraintAreaMinX = -980m
**.constraintAreaMinY = -980m
**.constraintAreaMinZ = 0m
**.constraintAreaMaxX = 980m
**.constraintAreaMaxY = 980m
**.constraintAreaMaxZ = 0m

**.host[0].mobility.initialX = 371.21027630128515m 
**.host[0].mobility.initialY = -133.59665442998755m 
**.host[1].mobility.initialX = 907.3916357655226m 
**.host[1].mobility.initialY = -114.16135900726476m 
**.host[2].mobility.initialX = 398.8154683096807m 
**.host[2].mobility.initialY = 47.777148641514714m 
**.host[3].mobility.initialX = -838.189071751223m 
**.host[3].mobility.initialY = 457.2954144521932m 
**.host[4].mobility.initialX = 884.8364264799166m 
**.host[4].mobility.initialY = 793.2621595481362m 
**.host[5].mobility.initialX = -961.5055626113751m 
**.host[5].mobility.initialY = 240.91569923364955m 
**.host[6].mobility.initialX = 744.4455239411179m 
**.host[6].mobility.initialY = -657.8597954641732m 
**.host[7].mobility.initialX = 766.8629058332642m 
**.host[7].mobility.initialY = 449.32960214901755m 
**.host[8].mobility.initialX = -79.16898757773572m 
**.host[8].mobility.initialY = -349.10623859745294m 
**.host[9].mobility.initialX = 356.1701931615705m 
**.host[9].mobility.initialY = 13.010455402151024m 
**.host[10].mobility.initialX = -162.48022059346602m 
**.host[10].mobility.initialY = 810.6064830565008m 
**.host[11].mobility.initialX = 470.3241066518017m 
**.host[11].mobility.initialY = -33.22402643822841m 
**.host[12].mobility.initialX = 196.39549445763282m 
**.host[12].mobility.initialY = 543.6593254473573m 
**.host[13].mobility.initialX = 410.5578921696317m 
**.host[13].mobility.initialY = -680.5482411989146m 
**.host[14].mobility.initialX = 223.9889492437269m 
**.host[14].mobility.initialY = -806.9476780487312m 
**.host[15].mobility.initialX = 454.49884096138726m 
**.host[15].mobility.initialY = 792.0214441961027m 
**.host[16].mobility.initialX = -224.22331550327215m 
**.host[16].mobility.initialY = 401.3826632083292m 
**.host[17].mobility.initialX = -830.0847326315525m 
**.host[17].mobility.initialY = -358.05501018241785m 
**.host[18].mobility.initialX = -730.556657482851m 
**.host[18].mobility.initialY = -457.1442739469229m 
**.host[19].mobility.initialX = -227.17278667501387m 
**.host[19].mobility.initialY = -878.2045736977725m 
**.host[20].mobility.initialX = -313.6039463277788m 
**.host[20].mobility.initialY = -55.409176705966274m 
**.host[21].mobility.initialX = -673.6819608170285m 
**.host[21].mobility.initialY = 777.7010492164793m 
**.host[22].mobility.initialX = -759.074744346018m 
**.host[22].mobility.initialY = -599.2791602876106m 
**.host[23].mobility.initialX = 527.9376709481123m 
**.host[23].mobility.initialY = -448.20620516972815m 
**.host[24].mobility.initialX = -451.5879452995771m 
**.host[24].mobility.initialY = 608.390830891193m 
**.host[25].mobility.initialX = -809.5634879243684m 
**.host[25].mobility.initialY = -871.1157691948655m 
**.host[26].mobility.initialX = -239.87430121758848m 
**.host[26].mobility.initialY = -723.8580901904079m 
**.host[27].mobility.initialX = -288.9455715014881m 
**.host[27].mobility.initialY = -819.6621615040048m 
**.host[28].mobility.initialX = -76.1167267863558m 
**.host[28].mobility.initialY = -295.82431641319204m 
**.host[29].mobility.initialX = 750.5696356227268m 
**.host[29].mobility.initialY = -703.8516126382501m 
**.host[30].mobility.initialX = -958.3124007889227m 
**.host[30].mobility.initialY = 348.95453229130203m 
**.host[31].mobility.initialX = 966.078432850795m 
**.host[31].mobility.initialY = 668.5700873761702m 
**.host[32].mobility.initialX = -285.31831802746126m 
**.host[32].mobility.initialY = 238.2400652627323m 
**.host[33].mobility.initialX = 183.04032742160712m 
**.host[33].mobility.initialY = 772.7111853299166m 
**.host[34].mobility.initialX = -408.0800395739608m 
**.host[34].mobility.initialY = 708.1388113847456m 
**.host[35].mobility.initialX = 187.3112223994474m 
**.host[35].mobility.initialY = -438.41672262000213m 
**.host[36].mobility.initialX = -847.5121574842506m 
**.host[36].mobility.initialY = 510.9542397726723m 
**.host[37].mobility.initialX = -491.791894067313m 
**.host[37].mobility.initialY = -589.413436187725m 
**.host[38].mobility.initialX = -260.1988696003799m 
**.host[38].mobility.initialY = -306.07371200630905m 
**.host[39].mobility.initialX = 151.99744051360244m 
**.host[39].mobility.initialY = -925.8743596294579m 
**.host[40].mobility.initialX = 763.885334329032m 
**.host[40].mobility.initialY = -500.87922865119m 
**.host[41].mobility.initialX = 558.4085447169241m 
**.host[41].mobility.initialY = 173.4789298398298m 
**.host[42].mobility.initialX = -181.68566147981778m 
**.host[42].mobility.initialY = -702.310478495338m 
**.host[43].mobility.initialX = -256.42407682823784m 
**.host[43].mobility.initialY = 280.5110018373034m 
**.host[44].mobility.initialX = -936.7088005947985m 
**.host[44].mobility.initialY = -923.9778047698891m 
**.host[45].mobility.initialX = 747.2295677527652m 
**.host[45].mobility.initialY = -520.4446822680154m 
**.host[46].mobility.initialX = 35.09180602982565m 
**.host[46].mobility.initialY = 269.562976514856m 
**.host[47].mobility.initialX = -901.9507681404239m 
**.host[47].mobility.initialY = -948.1363352160603m 
**.host[48].mobility.initialX = -21.042056645641765m 
**.host[48].mobility.initialY = 652.8938130784973m 
**.host[49].mobility.initialX = 105.95097124982203m 
**.host[49].mobility.initialY = 246.5976938511776m 
**.host[50].mobility.initialX = -211.7168967000266m 
**.host[50].mobility.initialY = 792.0963114845381m 
**.host[51].mobility.initialX = -263.57677699933754m 
**.host[51].mobility.initialY = -330.023461879121m 
**.host[52].mobility.initialX = 902.6297896167589m 
**.host[52].mobility.initialY = -193.85482159719095m 
**.host[53].mobility.initialX = 607.4984608129923m 
**.host[53].mobility.initialY = 68.12312164716286m 
**.host[54].mobility.initialX = -472.75072486238895m 
**.host[54].mobility.initialY = -757.0192791787154m 
**.host[55].mobility.initialX = 817.3192550668371m 
**.host[55].mobility.initialY = -194.721045354558m 
**.host[56].mobility.initialX = 526.4516645533777m 
**.host[56].mobility.initialY = 174.75299642072468m 
**.host[57].mobility.initialX = -571.4309194826889m 
**.host[57].mobility.initialY = -370.17581851965963m 
**.host[58].mobility.initialX = -683.2043948480806m 
**.host[58].mobility.initialY = -783.3045420589148m 
**.host[59].mobility.initialX = 646.4974546133215m 
**.host[59].mobility.initialY = 413.6402429272498m 
**.host[60].mobility.initialX = 446.5118232732748m 
**.host[60].mobility.initialY = 810.8775715568588m 
**.host[61].mobility.initialX = -374.7353697887579m 
**.host[61].mobility.initialY = -378.9211064210001m 
**.host[62].mobility.initialX = 640.0618102401183m 
**.host[62].mobility.initialY = -97.09723546084524m 
**.host[63].mobility.initialX = -865.6920465641524m 
**.host[63].mobility.initialY = 454.7110296660644m 
**.host[64].mobility.initialX = -475.9622870630648m 
**.host[64].mobility.initialY = -80.78100183763013m 
**.host[65].mobility.initialX = -698.4974124094522m 
**.host[65].mobility.initialY = 830.978102308276m 
**.host[66].mobility.initialX = 794.0468856979778m 
**.host[66].mobility.initialY = 928.7043379391328m 
**.host[67].mobility.initialX = -365.2170720254536m 
**.host[67].mobility.initialY = -77.38133802463062m 
**.host[68].mobility.initialX = -283.37151255230845m 
**.host[68].mobility.initialY = -719.7309506292327m 
**.host[69].mobility.initialX = -622.6544468224761m 
**.host[69].mobility.initialY = 19.77281406410293m 
**.host[70].mobility.initialX = -525.8827091288447m 
**.host[70].mobility.initialY = -435.4155233922886m 
**.host[71].mobility.initialX = -564.9609540724296m 
**.host[71].mobility.initialY = 963.8419265067785m 
**.host[72].mobility.initialX = 90.32278812840082m 
**.host[72].mobility.initialY = -222.563588831042m 
**.host[73].mobility.initialX = -791.1266491337213m 
**.host[73].mobility.initialY = 931.9398701807511m 
**.host[74].mobility.initialX = -269.14902745123936m 
**.host[74].mobility.initialY = -948.0930119856184m 
**.host[75].mobility.initialX = -811.7354486388884m 
**.host[75].mobility.initialY = -751.8745386495837m 
**.host[76].mobility.initialX = 759.4106075857244m 
**.host[76].mobility.initialY = -177.98480213493406m 
**.host[77].mobility.initialX = 535.9025719394479m 
**.host[77].mobility.initialY = 363.42861300537356m 
**.host[78].mobility.initialX = 453.1409142139619m 
**.host[78].mobility.initialY = 681.6236006551026m 
**.host[79].mobility.initialX = -84.82981493239072m 
**.host[79].mobility.initialY = -740.9215359390532m 
**.host[80].mobility.initialX = -58.80199735816336m 
**.host[80].mobility.initialY = -458.09758040848874m 
**.host[81].mobility.initialX = 80.99159997606375m 
**.host[81].mobility.initialY = -503.60791408798366m 
**.host[82].mobility.initialX = -396.89263478889086m 
**.host[82].mobility.initialY = 726.2731538470434m 
**.host[83].mobility.initialX = 665.6983489077129m 
**.host[83].mobility.initialY = 309.10445362554924m 
**.host[84].mobility.initialX = -212.32438447675167m 
**.host[84].mobility.initialY = -927.0333471138504m 
**.host[85].mobility.initialX = 521.0016446150323m 
**.host[85].mobility.initialY = 746.0896135820428m 
**.host[86].mobility.initialX = -103.31301154674713m 
**.host[86].mobility.initialY = -178.4262532596698m 
**.host[87].mobility.initialX = 49.3071942493018m 
**.host[87].mobility.initialY = 839.5360161603242m 
**.host[88].mobility.initialX = -552.6889966586255m 
**.host[88].mobility.initialY = 744.869382896054m 
**.host[89].mobility.initialX = -516.0813922679708m 
**.host[89].mobility.initialY = -701.7465442293237m 
**.host[90].mobility.initialX = -599.0222465818908m 
**.host[90].mobility.initialY = -768.4281219000304m 
**.host[91].mobility.initialX = 672.3284751325175m 
**.host[91].mobility.initialY = 119.68131102104917m 
**.host[92].mobility.initialX = 255.04339229745915m 
**.host[92].mobility.initialY = -465.0838675319966m 
**.host[93].mobility.initialX = 78.00274445029959m 
**.host[93].mobility.initialY = -748.5214441242036m 
**.host[94].mobility.initialX = -648.0249444057833m 
**.host[94].mobility.initialY = -657.1748037520395m 
**.host[95].mobility.initialX = 571.9700216924412m 
**.host[95].mobility.initialY = 303.98776345875854m 
**.host[96].mobility.initialX = -341.2972887262714m 
**.host[96].mobility.initialY = 771.1772740101455m 
**.host[97].mobility.initialX = -454.20773320274m 
**.host[97].mobility.initialY = 93.08694440839713m 
**.host[98].mobility.initialX = -482.06387393994095m 
**.host[98].mobility.initialY = -455.70349418280466m 
**.host[99].mobility.initialX = 561.1432666794578m 
**.host[99].mobility.initialY = -312.0608932442635m 
**.host[100].mobility.initialX = 93.35357298402755m 
**.host[100].mobility.initialY = 273.84880730110535m 
**.host[101].mobility.initialX = -295.3378533876929m 
**.host[101].mobility.initialY = 664.946053869269m 
**.host[102].mobility.initialX = 437.8361196315277m 
**.host[102].mobility.initialY = -344.72458960397375m 
**.host[103].mobility.initialX = 850.892653075096m 
**.host[103].mobility.initialY = -437.18503353444464m 
**.host[104].mobility.initialX = 363.92744144578865m 
**.host[104].mobility.initialY = -671.6890115783438m 
**.host[105].mobility.initialX = 308.9530199499918m 
**.host[105].mobility.initialY = -234.89052077666236m 
**.host[106].mobility.initialX = -311.5429995116972m 
**.host[106].mobility.initialY = 588.1825130635025m 
**.host[107].mobility.initialX = 495.15726049914156m 
**.host[107].mobility.initialY = -484.1870283601666m 
**.host[108].mobility.initialX = 259.84577220172037m 
**.host[108].mobility.initialY = 141.78481374726107m 
**.host[109].mobility.initialX = -147.53621950401634m 
**.host[109].mobility.initialY = -438.028041847602m 
**.host[110].mobility.initialX = 177.4599867918339m 
**.host[110].mobility.initialY = 282.67597694193046m 
**.host[111].mobility.initialX = 965.3232815150552m 
**.host[111].mobility.initialY = 320.13554388216244m 
**.host[112].mobility.initialX = 746.1820361961334m 
**.host[112].mobility.initialY = -237.00956094528658m 
**.host[113].mobility.initialX = 245.11033871713153m 
**.host[113].mobility.initialY = 868.0750073861025m 
**.host[114].mobility.initialX = 817.959251372921m 
**.host[114].mobility.initialY = 389.9777183208362m 
**.host[115].mobility.initialX = -540.1401870680891m 
**.host[115].mobility.initialY = -627.4182643199589m 
**.host[116].mobility.initialX = -649.448617036184m 
**.host[116].mobility.initialY = -59.23385047303634m 
**.host[117].mobility.initialX = -274.6022175176978m 
**.host[117].mobility.initialY = 359.76590198066697m 
**.host[118].mobility.initialX = 358.3482710940468m 
**.host[118].mobility.initialY = -230.3271289194754m 
**.host[119].mobility.initialX = 651.5465924620298m 
**.host[119].mobility.initialY = -446.51746166652663m 
**.host[120].mobility.initialX = 82.04915802990695m 
**.host[120].mobility.initialY = -353.0817679927093m 
**.host[121].mobility.initialX = -724.9072853529124m 
**.host[121].mobility.initialY = -526.724085068397m 
**.host[122].mobility.initialX = 854.9002472428847m 
**.host[122].mobility.initialY = 954.7160902274309m 
**.host[123].mobility.initialX = 763.7424029718225m 
**.host[123].mobility.initialY = 641.6963048494767m 
**.host[124].mobility.initialX = -388.8835151341626m 
**.host[124].mobility.initialY = -286.2047496757183m 
**.host[125].mobility.initialX = -275.8742262233425m 
**.host[125].mobility.initialY = -71.3613574853066m 
**.host[126].mobility.initialX = 919.3841131632901m 
**.host[126].mobility.initialY = -397.1909172101099m 
**.host[127].mobility.initialX = -674.5762067255772m 
**.host[127].mobility.initialY = -765.172581127444m 
**.host[128].mobility.initialX = 83.93704910471342m 
**.host[128].mobility.initialY = 286.4206282306893m 
**.host[129].mobility.initialX = -638.571565408153m 
**.host[129].mobility.initialY = 326.7553875750341m 
**.host[130].mobility.initialX = 719.0775155557733m 
**.host[130].mobility.initialY = -141.50919637237962m 
**.host[131].mobility.initialX = 677.212929714736m 
**.host[131].mobility.initialY = -647.5451219017536m 
**.host[132].mobility.initialX = 482.2453354232666m 
**.host[132].mobility.initialY = -205.20698942909223m 
**.host[133].mobility.initialX = 113.77685708679473m 
**.host[133].mobility.initialY = 43.74605011342578m 
**.host[134].mobility.initialX = -858.3102825911441m 
**.host[134].mobility.initialY = -265.28529829422155m 
**.host[135].mobility.initialX = -862.5482651990053m 
**.host[135].mobility.initialY = 293.3962934288277m 
**.host[136].mobility.initialX = 260.40779090256433m 
**.host[136].mobility.initialY = 71.02967887967702m 
**.host[137].mobility.initialX = 918.9194161531063m 
**.host[137].mobility.initialY = -554.1949080376106m 
**.host[138].mobility.initialX = -29.156065486749526m 
**.host[138].mobility.initialY = -3.2040213337060095m 
**.host[139].mobility.initialX = 871.6144899976489m 
**.host[139].mobility.initialY = 352.6871514566699m 
**.host[140].mobility.initialX = -779.4554884104436m 
**.host[140].mobility.initialY = -431.86479656376605m 
**.host[141].mobility.initialX = 777.2868718502166m 
**.host[141].mobility.initialY = 732.3700077196258m 
**.host[142].mobility.initialX = -635.5496812510366m 
**.host[142].mobility.initialY = -110.28447761253256m 
**.host[143].mobility.initialX = -632.3095939374532m 
**.host[143].mobility.initialY = -244.78510524837088m 
**.host[144].mobility.initialX = -735.2022810500526m 
**.host[144].mobility.initialY = -400.39314981756206m 
**.host[145].mobility.initialX = 525.0568737601213m 
**.host[145].mobility.initialY = -528.8411068904359m 
**.host[146].mobility.initialX = -79.31019389601943m 
**.host[146].mobility.initialY = -343.9928970687928m 
**.host[147].mobility.initialX = -15.666719991225705m 
**.host[147].mobility.initialY = 583.2371776179239m 
**.host[148].mobility.initialX = -152.79588270645877m 
**.host[148].mobility.initialY = -890.0035108115148m 
**.host[149].mobility.initialX = 684.788033318556m 
**.host[149].mobility.initialY = -450.92283593666355m 
**.host[150].mobility.initialX = -635.6388635154779m 
**.host[150].mobility.initialY = -472.41279274402547m 
**.host[151].mobility.initialX = 191.36301335643702m 
**.host[151].mobility.initialY = -890.8148679770504m 
**.host[152].mobility.initialX = -901.228659356384m 
**.host[152].mobility.initialY = 858.6743455647768m 
**.host[153].mobility.initialX = -919.1221102913355m 
**.host[153].mobility.initialY = 755.033243278592m 
**.host[154].mobility.initialX = -868.9757439291166m 
**.host[154].mobility.initialY = -587.9596183274025m 
**.host[155].mobility.initialX = -891.3133465340927m 
**.host[155].mobility.initialY = 539.8293324805245m 
**.host[156].mobility.initialX = 166.954629265422m 
**.host[156].mobility.initialY = 211.70472223857587m 
**.host[157].mobility.initialX = -58.62966263976557m 
**.host[157].mobility.initialY = -651.7621335513114m 
**.host[158].mobility.initialX = -19.502349159829805m 
**.host[158].mobility.initialY = 947.0629445074865m 
**.host[159].mobility.initialX = 943.7448462209593m 
**.host[159].mobility.initialY = 204.09889315770283m 
**.host[160].mobility.initialX = 77.3844839186595m 
**.host[160].mobility.initialY = 950.8425009638172m 
**.host[161].mobility.initialX = -375.557639434963m 
**.host[161].mobility.initialY = 955.0141030954012m 
**.host[162].mobility.initialX = -237.75944781826263m 
**.host[162].mobility.initialY = 923.5097346722364m 
**.host[163].mobility.initialX = -399.31067843500534m 
**.host[163].mobility.initialY = -845.9179899784989m 
**.host[164].mobility.initialX = -613.8729802923584m 
**.host[164].mobility.initialY = 462.86336700154834m 
**.host[165].mobility.initialX = 398.69439383297095m 
**.host[165].mobility.initialY = 426.29872535714253m 
**.host[166].mobility.initialX = 887.8541487999014m 
**.host[166].mobility.initialY = 725.4474741659685m 
**.host[167].mobility.initialX = 850.7363029619607m 
**.host[167].mobility.initialY = 106.91689322146544m 
**.host[168].mobility.initialX = 148.11279257603178m 
**.host[168].mobility.initialY = 150.63679625131954m 
**.host[169].mobility.initialX = -767.7912264023346m 
**.host[169].mobility.initialY = 534.2733671415549m 
**.host[170].mobility.initialX = 68.43851706318151m 
**.host[170].mobility.initialY = -263.1094432993913m 
**.host[171].mobility.initialX = -215.6866817885258m 
**.host[171].mobility.initialY = -711.6225432075889m 
**.host[172].mobility.initialX = 761.0869717948572m 
**.host[172].mobility.initialY = 233.68368675007218m 
**.host[173].mobility.initialX = -846.0949694392609m 
**.host[173].mobility.initialY = -327.0085864400771m 
**.host[174].mobility.initialX = 150.6609932095705m 
**.host[174].mobility.initialY = 133.83629617445763m 
**.host[175].mobility.initialX = 544.9439676920249m 
**.host[175].mobility.initialY = 523.1094386096743m 
**.host[176].mobility.initialX = 578.2544485531159m 
**.host[176].mobility.initialY = -921.5731703015861m 
**.host[177].mobility.initialX = 435.5091096691317m 
**.host[177].mobility.initialY = -624.4196947126215m 
**.host[178].mobility.initialX = 608.1084992032095m 
**.host[178].mobility.initialY = 190.90805197896657m 
**.host[179].mobility.initialX = -237.95290758467297m 
**.host[179].mobility.initialY = 318.29322201166224m 
**.host[180].mobility.initialX = 561.5960325954693m 
**.host[180].mobility.initialY = 703.161593598325m 
**.host[181].mobility.initialX = -703.1531749998285m 
**.host[181].mobility.initialY = -459.73785637439414m 
**.host[182].mobility.initialX = 602.6959327061638m 
**.host[182].mobility.initialY = 722.244052903159m 
**.host[183].mobility.initialX = 683.302698300462m 
**.host[183].mobility.initialY = 857.1652342016098m 
**.host[184].mobility.initialX = 946.1616769997906m 
**.host[184].mobility.initialY = -92.79333668555034m 
**.host[185].mobility.initialX = 563.3325512825452m 
**.host[185].mobility.initialY = -672.6647157217711m 
**.host[186].mobility.initialX = 821.0883062887506m 
**.host[186].mobility.initialY = 601.6892625424962m 
**.host[187].mobility.initialX = -265.9985468280714m 
**.host[187].mobility.initialY = -779.8493194827743m 
**.host[188].mobility.initialX = 597.528556511164m 
**.host[188].mobility.initialY = -135.85635355788452m 
**.host[189].mobility.initialX = 551.9261215515546m 
**.host[189].mobility.initialY = 751.7423197378421m 
**.host[190].mobility.initialX = 634.6274022531136m 
**.host[190].mobility.initialY = -699.1126382686682m 
**.host[191].mobility.initialX = -126.18795989005196m 
**.host[191].mobility.initialY = -158.1158595047176m 
**.host[192].mobility.initialX = -611.9168722001068m 
**.host[192].mobility.initialY = -736.0589735940655m 
**.host[193].mobility.initialX = -920.4998304762738m 
**.host[193].mobility.initialY = 678.5149797995446m 
**.host[194].mobility.initialX = -497.59578389470914m 
**.host[194].mobility.initialY = -481.3448431729612m 
**.host[195].mobility.initialX = 503.365928031169m 
**.host[195].mobility.initialY = 763.746763176355m 
**.host[196].mobility.initialX = -219.86925602992903m 
**.host[196].mobility.initialY = 428.73400193336875m 
**.host[197].mobility.initialX = 966.3507970387302m 
**.host[197].mobility.initialY = 66.13922855801184m 
**.host[198].mobility.initialX = -467.4984629995563m 
**.host[198].mobility.initialY = -383.3388673495349m 
**.host[199].mobility.initialX = -593.1540185947244m 
**.host[199].mobility.initialY = 704.1023999352753m 
**.host[200].mobility.initialX = 525.8224808767552m 
**.host[200].mobility.initialY = -377.140526017449m 
**.host[201].mobility.initialX = -678.7124948369728m 
**.host[201].mobility.initialY = 477.8662728536606m 
**.host[202].mobility.initialX = -304.1923762324816m 
**.host[202].mobility.initialY = 835.5051542598721m 
**.host[203].mobility.initialX = 258.9070611837112m 
**.host[203].mobility.initialY = -30.280652396700134m 
**.host[204].mobility.initialX = -66.44390194940127m 
**.host[204].mobility.initialY = 148.3087405320057m 
**.host[205].mobility.initialX = -70.74835130661859m 
**.host[205].mobility.initialY = 5.924114776589704m 
**.host[206].mobility.initialX = -173.84398750891648m 
**.host[206].mobility.initialY = 623.366571683797m 
**.host[207].mobility.initialX = -846.9792840186943m 
**.host[207].mobility.initialY = -6.741614658648928m 
**.host[208].mobility.initialX = -549.371228582087m 
**.host[208].mobility.initialY = -73.74082918373551m 
**.host[209].mobility.initialX = -885.0604268166727m 
**.host[209].mobility.initialY = 768.3733507165434m 
**.host[210].mobility.initialX = -323.4579418227846m 
**.host[210].mobility.initialY = -419.7066488971532m 
**.host[211].mobility.initialX = 752.9360561195172m 
**.host[211].mobility.initialY = 967.7735611864434m 
**.host[212].mobility.initialX = -481.2505809248256m 
**.host[212].mobility.initialY = -375.1537664879314m 
**.host[213].mobility.initialX = 258.53102616930755m 
**.host[213].mobility.initialY = -603.5768412933492m 
**.host[214].mobility.initialX = 129.56542028638341m 
**.host[214].mobility.initialY = -572.1614717449752m 
**.host[215].mobility.initialX = 721.2764324028838m 
**.host[215].mobility.initialY = -924.1212056116274m 
**.host[216].mobility.initialX = 698.1877292511351m 
**.host[216].mobility.initialY = -468.33644548076046m 
**.host[217].mobility.initialX = -540.6652381273836m 
**.host[217].mobility.initialY = 804.3395213168276m 
**.host[218].mobility.initialX = 26.198456590822616m 
**.host[218].mobility.initialY = 860.6409456969245m 
**.host[219].mobility.initialX = -810.6949539363105m 
**.host[219].mobility.initialY = 864.2582642388547m 
**.host[220].mobility.initialX = -806.4024262909703m 
**.host[220].mobility.initialY = -113.04994186202839m 
**.host[221].mobility.initialX = -620.5279556049209m 
**.host[221].mobility.initialY = 864.799844077095m 
**.host[222].mobility.initialX = -744.9470720919211m 
**.host[222].mobility.initialY = -889.8601551144156m 
**.host[223].mobility.initialX = 208.81437007153158m 
**.host[223].mobility.initialY = 843.2332790798459m 
**.host[224].mobility.initialX = -156.49209254215987m 
**.host[224].mobility.initialY = -71.68799566168559m 
**.host[225].mobility.initialX = -320.31232781082235m 
**.host[225].mobility.initialY = -639.4572886314329m 
**.host[226].mobility.initialX = -642.6735710447081m 
**.host[226].mobility.initialY = -551.5935020844545m 
**.host[227].mobility.initialX = -15.692172878516317m 
**.host[227].mobility.initialY = 509.831922082602m 
**.host[228].mobility.initialX = -12.717749495902808m 
**.host[228].mobility.initialY = -220.13016430950552m 
**.host[229].mobility.initialX = -121.8689793199186m 
**.host[229].mobility.initialY = -298.9934841659324m 
**.host[230].mobility.initialX = -790.2288864004381m 
**.host[230].mobility.initialY = -198.94873949309283m 
**.host[231].mobility.initialX = 867.1848028252232m 
**.host[231].mobility.initialY = 69.76208618249984m 
**.host[232].mobility.initialX = -24.53789973474977m 
**.host[232].mobility.initialY = 507.67385187107834m 
**.host[233].mobility.initialX = -50.829643661500995m 
**.host[233].mobility.initialY = -512.8505504505908m 
**.host[234].mobility.initialX = -66.13865770586779m 
**.host[234].mobility.initialY = 353.6956111334978m 
**.host[235].mobility.initialX = -306.73992136048923m 
**.host[235].mobility.initialY = 583.292943986361m 
**.host[236].mobility.initialX = 936.468689555456m 
**.host[236].mobility.initialY = -221.53578857891682m 
**.host[237].mobility.initialX = 718.9193684649238m 
**.host[237].mobility.initialY = 552.9633939855705m 
**.host[238].mobility.initialX = -919.7056882861177m 
**.host[238].mobility.initialY = -498.5463508022945m 
**.host[239].mobility.initialX = 557.6371463998546m 
**.host[239].mobility.initialY = 545.574442730147m 
**.host[240].mobility.initialX = 772.8015266583564m 
**.host[240].mobility.initialY = -346.0711805685262m 
**.host[241].mobility.initialX = -196.46602010960623m 
**.host[241].mobility.initialY = 395.71330269918394m 
**.host[242].mobility.initialX = -370.06903308158564m 
**.host[242].mobility.initialY = -729.5598208997242m 
**.host[243].mobility.initialX = -765.7070945962081m 
**.host[243].mobility.initialY = 131.20354656530026m 
**.host[244].mobility.initialX = -903.2792114086233m 
**.host[244].mobility.initialY = -876.7006349850915m 
**.host[245].mobility.initialX = -721.7072264649407m 
**.host[245].mobility.initialY = -92.32647211127164m 
**.host[246].mobility.initialX = 821.2431810850242m 
**.host[246].mobility.initialY = -836.5881199950862m 
**.host[247].mobility.initialX = 579.5301202902674m 
**.host[247].mobility.initialY = -101.49316219947923m 
**.host[248].mobility.initialX = 697.5406491780439m 
**.host[248].mobility.initialY = 653.9124278156694m 
**.host[249].mobility.initialX = -911.1754017727m 
**.host[249].mobility.initialY = -356.2335221252073m 
**.host[250].mobility.initialX = -114.611222143639m 
**.host[250].mobility.initialY = 646.04840245336m 
**.host[251].mobility.initialX = 203.4428276834151m 
**.host[251].mobility.initialY = 755.7930162348962m 
**.host[252].mobility.initialX = 125.04243201163968m 
**.host[252].mobility.initialY = 409.4602138886521m 
**.host[253].mobility.initialX = -233.80450622583635m 
**.host[253].mobility.initialY = -776.9205924134467m 
**.host[254].mobility.initialX = 656.6269066343136m 
**.host[254].mobility.initialY = -683.7424367866279m 
**.host[255].mobility.initialX = 426.6720268661711m 
**.host[255].mobility.initialY = -621.7913605034636m 
**.host[256].mobility.initialX = 475.4667627179549m 
**.host[256].mobility.initialY = 214.6880634579727m 
**.host[257].mobility.initialX = 255.11050159497563m 
**.host[257].mobility.initialY = -761.1005900946623m 
**.host[258].mobility.initialX = 407.21359816673817m 
**.host[258].mobility.initialY = 421.1790589173979m 
**.host[259].mobility.initialX = -585.9305733979803m 
**.host[259].mobility.initialY = -468.0186550363953m 
**.host[260].mobility.initialX = -886.1728296317806m 
**.host[260].mobility.initialY = 648.6889825349126m 
**.host[261].mobility.initialX = -577.3286177795233m 
**.host[261].mobility.initialY = 583.0574539276358m 
**.host[262].mobility.initialX = -825.6678922651024m 
**.host[262].mobility.initialY = -164.30180331953522m 
**.host[263].mobility.initialX = 107.07196069636416m 